data/ieee33/case33.m
function mpc = case33
%% MATPOWER Case Format : Version 2
mpc.version = '2';

%%-----  Power Flow Data  -----%%
%% system MVA base
mpc.baseMVA = 100;

%% bus data
%	bus_i	type	Pd	Qd	Gs	Bs	area	Vm	Va	baseKV	zone	Vmax	Vmin
mpc.bus = [
	1	3	0.0000	0.0000	0	0	1	1.00	0	12.66	1	1.00	0.90;
	2	1	0.1000	0.0600	0	0	1	1.00	0	12.66	1	1.00	0.90;
	3	1	0.0900	0.0400	0	0	1	1.00	0	12.66	1	1.00	0.90;
	4	1	0.1200	0.0800	0	0	1	1.00	0	12.66	1	1.00	0.90;
	5	1	0.0600	0.0300	0	0	1	1.00	0	12.66	1	1.00	0.90;
	6	1	0.0600	0.0200	0	0	1	1.00	0	12.66	1	1.00	0.90;
	7	1	0.2000	0.1000	0	0	1	1.00	0	12.66	1	1.00	0.90;
	8	1	0.2000	0.1000	0	0	1	1.00	0	12.66	1	1.00	0.90;
	9	1	0.0600	0.0200	0	0	1	1.00	0	12.66	1	1.00	0.90;
	10	1	0.0600	0.0200	0	0	1	1.00	0	12.66	1	1.00	0.90;
	11	1	0.0450	0.0300	0	0	1	1.00	0	12.66	1	1.00	0.90;
	12	1	0.0600	0.0350	0	0	1	1.00	0	12.66	1	1.00	0.90;
	13	1	0.0600	0.0350	0	0	1	1.00	0	12.66	1	1.00	0.90;
	14	1	0.1200	0.0800	0	0	1	1.00	0	12.66	1	1.00	0.90;
	15	1	0.0600	0.0100	0	0	1	1.00	0	12.66	1	1.00	0.90;
	16	1	0.0600	0.0200	0	0	1	1.00	0	12.66	1	1.00	0.90;
	17	1	0.0600	0.0200	0	0	1	1.00	0	12.66	1	1.00	0.90;
	18	1	0.0900	0.0400	0	0	1	1.00	0	12.66	1	1.00	0.90;
	19	1	0.0900	0.0400	0	0	1	1.00	0	12.66	1	1.00	0.90;
	20	1	0.0900	0.0400	0	0	1	1.00	0	12.66	1	1.00	0.90;
	21	1	0.0900	0.0400	0	0	1	1.00	0	12.66	1	1.00	0.90;
	22	1	0.0900	0.0400	0	0	1	1.00	0	12.66	1	1.00	0.90;
	23	1	0.0900	0.0500	0	0	1	1.00	0	12.66	1	1.00	0.90;
	24	1	0.4200	0.2000	0	0	1	1.00	0	12.66	1	1.00	0.90;
	25	1	0.4200	0.2000	0	0	1	1.00	0	12.66	1	1.00	0.90;
	26	1	0.0600	0.0250	0	0	1	1.00	0	12.66	1	1.00	0.90;
	27	1	0.0600	0.0250	0	0	1	1.00	0	12.66	1	1.00	0.90;
	28	1	0.0600	0.0200	0	0	1	1.00	0	12.66	1	1.00	0.90;
	29	1	0.1200	0.0700	0	0	1	1.00	0	12.66	1	1.00	0.90;
	30	1	0.2000	0.6000	0	0	1	1.00	0	12.66	1	1.00	0.90;
    31	1	0.1500	0.0700	0	0	1	1.00	0	12.66	1	1.00	0.90;
    32	1	0.2100	0.1000	0	0	1	1.00	0	12.66	1	1.00	0.90;
    33	1	0.0600	0.0400	0	0	1	1.00	0	12.66	1	1.00	0.90;
];

%% generator data
%	bus	Pg	Qg	Qmax	Qmin	Vg	mBase	status	Pmax	Pmin	Pc1	Pc2	Qc1min	Qc1max	Qc2min	Qc2max	ramp_agc	ramp_10	ramp_30	ramp_q	apf
mpc.gen = [
	1	0	0	0	0	1.00	100	1	0	0	0	0	0	0	0	0	0	0	0	0	0;
];

%% branch data
%	fbus	tbus	r	x	b	rateA	rateB	rateC	ratio	angle	status	angmin	angmax
mpc.branch = [
	1	2	0.0922*1.000	0.0407*1.000	0	0	0	0	0	0	1	-360	360;
	2	3	0.4930*1.000	0.2511*1.000	0	0	0	0	0	0	1	-360	360;
	3	4	0.3660*1.000	0.1864*1.000	0	0	0	0	0	0	1	-360	360;
	4	5	0.3811*1.000	0.1941*1.000	0	0	0	0	0	0	1	-360	360;
	5	6	0.8190*1.000	0.7070*1.000	0	0	0	0	0	0	1	-360	360;
	6	7	0.1872*1.000	0.6188*1.000	0	0	0	0	0	0	1	-360	360;
	7	8	0.7114*1.000	0.2351*1.000	0	0	0	0	0	0	1	-360	360;
	8	9	1.0300*1.000	0.7400*1.000	0	0	0	0	0	0	1	-360	360;
	9	10	1.0440*1.000	0.7400*1.000	0	0	0	0	0	0	1	-360	360;
	10	11	0.1966*1.000	0.0650*1.000	0	0	0	0	0	0	1	-360	360;
	11	12	0.3744*1.000	0.1238*1.000	0	0	0	0	0	0	1	-360	360;
	12	13	1.4680*1.000	1.1500*1.000	0	0	0	0	0	0	1	-360	360;
	13	14	0.5416*1.000	0.7129*1.000	0	0	0	0	0	0	1	-360	360;
	14	15	0.5910*1.000	0.5620*1.000	0	0	0	0	0	0	1	-360	360;
	15	16	0.7463*1.000	0.5450*1.000	0	0	0	0	0	0	1	-360	360;
	16	17	1.2890*1.000	1.7210*1.000	0	0	0	0	0	0	1	-360	360;
	17	18	0.7320*1.000	0.5740*1.000	0	0	0	0	0	0	1	-360	360;
	2	19	0.1640*1.000	0.1565*1.000	0	0	0	0	0	0	1	-360	360;
	19	20	1.5042*1.000	1.3554*1.000	0	0	0	0	0	0	1	-360	360;
	20	21	0.4095*1.000	0.4784*1.000	0	0	0	0	0	0	1	-360	360;
	21	22	0.7089*1.000	0.9373*1.000	0	0	0	0	0	0	1	-360	360;
	3	23	0.4512*1.000	0.3083*1.000	0	0	0	0	0	0	1	-360	360;
	23	24	0.8980*1.000	0.7091*1.000	0	0	0	0	0	0	1	-360	360;
	24	25	0.8960*1.000	0.7011*1.000	0	0	0	0	0	0	1	-360	360;
	6	26	0.2030*1.000	0.1034*1.000	0	0	0	0	0	0	1	-360	360;
	26	27	0.2842*1.000	0.1447*1.000	0	0	0	0	0	0	1	-360	360;
	27	28	1.0590*1.000	0.9337*1.000	0	0	0	0	0	0	1	-360	360;
	28	29	0.8042*1.000	0.7006*1.000	0	0	0	0	0	0	1	-360	360;
	29	30	0.5075*1.000	0.2585*1.000	0	0	0	0	0	0	1	-360	360;
	30	31	0.9744*1.000	0.9630*1.200	0	0	0	0	0	0	1	-360	360;
	31	32	0.3105*1.000	0.3619*1.000	0	0	0	0	0	0	1	-360	360;
	32	33	0.3410*1.000	0.5302*1.000	0	0	0	0	0	0	1	-360	360;
	21	8	2.0000*1.000	2.0000*1.000	0	0	0	0	0	0	1	-360	360;
	9	15	2.0000*1.000	2.0000*1.000	0	0	0	0	0	0	1	-360	360;
	12	22	2.0000*1.000	2.0000*1.000	0	0	0	0	0	0	1	-360	360;
	18	33	2.0000*1.000	2.0000*1.000	0	0	0	0	0	0	1	-360	360;
	25	29	0.5000*1.000	2.0000*1.000	0	0	0	0	0	0	1	-360	360;
];
